FoamFile
{
    version     2.0;
    format      ascii;
    class       polyBoundaryMesh;
    location    "constant/polyMesh";
    object      boundary;
}

6         
(
    inlet
    {
        type cyclic;
        nFaces 270;
        startFace 6669;
    }
    outlet
    {
        type cyclic;
        nFaces 270;
        startFace 6939;
    }
    side bottom
    {
        type wall;
        nFaces 81;
        startFace 7209;
    }
    side top
    {
        type wall;
        nFaces 81;
        startFace 7290;
    }
    sideleft
    {
        type symmetryPlane;
        nFaces 270;
        startFace 7371;
    }
    sideright
    {
        type symmetryPlane;
        nFaces 270;
        startFace 7641;
    }
)
